test/fixtures/powermodels/case5_pwlc/sol_ac_opf.json
{
  "termination_status": "LOCALLY_SOLVED",
  "objective": 42905.1302029159,
  "solution": {
    "dcline": {
      "1": {
        "qf": -0.22774552103227888,
        "qt": 0.026226650367042657,
        "p_dc_cost": 0.0,
        "pt": -0.11549483385225043,
        "pf": 0.1154948338522507
      }
    },
    "baseMVA": 100.0,
    "branch": {
      "4": {
        "qf": -0.7466174393905457,
        "qt": 0.7595543059736187,
        "pt": 1.8281034972229429,
        "pf": -1.8245886766750272
      },
      "1": {
        "qf": 0.26489488675327183,
        "qt": -0.23948256060945428,
        "pt": -1.1754113233249737,
        "pf": 1.1788066745444554
      },
      "5": {
        "qf": 0.01511230921496669,
        "qt": -0.019847409883116916,
        "pt": -0.3715560076095952,
        "pf": 0.3718965546118059
      },
      "2": {
        "qf": -0.013474767387347052,
        "qt": 0.021861702673130354,
        "pt": -0.8046739353875295,
        "pf": 0.8063075509734483
      },
      "6": {
        "qf": 0.02239053543391146,
        "qt": -0.0138065427656286,
        "pt": 0.8254426878880691,
        "pf": -0.8237700371677371
      },
      "3": {
        "qf": -0.018847789871950422,
        "qt": -0.018976811803250268,
        "pt": 0.0006090324350234311,
        "pf": -0.0006090326692303015
      }
    },
    "gen": {
      "4": {
        "qg": 1.7607666151885855,
        "pg": 0.0,
        "pg_cost": 10.0
      },
      "1": {
        "qg": 0.0002532125517439685,
        "pg": 0.40000000985046263,
        "pg_cost": 0.0
      },
      "5": {
        "qg": 1.3391048282239246,
        "pg": 2.000000019835138,
        "pg_cost": 6464.545514591826
      },
      "2": {
        "qg": 0.0045735959099515245,
        "pg": 1.7000000168504628,
        "pg_cost": 841.0000000000001
      },
      "6": {
        "qg": -0.006556704201836213,
        "pg": 0.710556886470842,
        "pg_cost": 20840.374857890256
      },
      "3": {
        "qg": 0.0,
        "pg": 5.200000051834749,
        "pg_cost": 14749.209830433823
      }
    },
    "multiinfrastructure": false,
    "multinetwork": false,
    "bus": {
      "4": {
        "va": 3.3999078615236456e-23,
        "vm": 1.0982606540869846
      },
      "1": {
        "va": 0.020315014276836612,
        "vm": 1.1000000007996298
      },
      "10": {
        "va": 0.020318269727475358,
        "vm": 1.0999999798072166
      },
      "2": {
        "va": -0.006671501330746717,
        "vm": 1.0905088551323066
      },
      "3": {
        "va": 0.009097948668732246,
        "vm": 1.0997377628506857
      }
    },
    "per_unit": true
  }
}

